/batch
/config,noeldb,1     ! force off writing results to database
*get,_wallstrt,active,,time,wall
! ANSYS input file written by Workbench version 2019 R1
! File used for geometry attach: D:\SPSProjects\ANSYS_projects\windTurbineCFD_files\dp0\FFF\DM\FFF.agdb
/title,windTurbineCFD--Static Structural (B5)
*DIM,_wb_ProjectScratch_dir,string,248
_wb_ProjectScratch_dir(1) = 'D:\SPSProjects\ANSYS_projects\_ProjectScratch\Scr434\'
*DIM,_wb_SolverFiles_dir,string,248
_wb_SolverFiles_dir(1) = 'D:\SPSProjects\ANSYS_projects\windTurbineCFD_files\dp0\SYS\MECH\'
*DIM,_wb_userfiles_dir,string,248
_wb_userfiles_dir(1) = 'D:\SPSProjects\ANSYS_projects\windTurbineCFD_files\user_files\'
/com,--- Data in consistent MKS units. See Solving Units in the help system for more information.
/units,MKS
/nopr
/wb,file,start              !  signify a WB generated input file
/prep7
! Turn off shape checking because checks already performed inside WB mesher.
! See help system for more information.
SHPP,OFF,,NOWARN
/nolist
etcon,set             ! allow ANSYS to choose best KEYOP's for 180x elements
/com,*********** Nodes for the whole assembly ***********
nblock,3,,5833
(1i9,3e20.9e3)
        1    -3.594999997E+01     5.169560128E-01     4.111138302E-01
        2    -4.420000000E+01     6.575316800E-01     4.835617903E-01
        3    -4.420000000E+01     6.482224919E-01     6.166893563E-01
        4    -3.594999997E+01     4.937917805E-01     6.712243827E-01
        5    -2.770000000E+01     3.455002026E-01     6.588660813E-01
        6    -2.770000000E+01     3.955845204E-01     3.152052363E-01
        7    -1.945000000E+01     2.863764008E-01     1.494775792E-01
        8    -1.945000000E+01     1.646610861E-01     7.981230487E-01
        9    -1.120000000E+01     3.133801444E-01    -4.941966112E-02
       10    -1.120000000E+01     2.894528236E-02     6.307943204E-01
       11    -3.000000000E+00    -2.673791887E-01     9.582564662E-01
       12    -3.000000000E+00     1.017063871E+00    -1.064913350E-01
       13    -1.100371354E+01     3.223035600E-01    -5.257620136E-02
       14    -1.080748506E+01     3.317980511E-01    -5.560213102E-02
       15    -1.061128857E+01     3.418505110E-01    -5.850109799E-02
       16    -1.041510179E+01     3.524479368E-01    -6.127662851E-02
       17    -1.021882385E+01     3.635821396E-01    -6.393323189E-02
       18    -1.002244486E+01     3.752404676E-01    -6.647402909E-02
       19    -9.825980940E+00     3.874086850E-01    -6.890181273E-02
       20    -9.629465221E+00     4.000712373E-01    -7.121922532E-02
! ... 5284 like lines cut
/com,*********** Nodes for all Remote Points ***********
nblock,3
(1i9,3e20.9e3)
     5304     0.000000000E+00     0.000000000E+00     0.000000000E+00
-1
/wb,elem,start            !  set before creation of elements
/com,*********** Elements for Body 1 "Surface Body" ***********
et,1,181
keyo,1,3,2
eblock,19,solid,,44
(19i9)
        1        1        1        1       12        0        0        0        4        0        1      422      819      421      421
        1        1        1        1       12        0        0        0        4        0        2      819      217      216      421
        1        1        1        1       12        0        0        0        4        0        3      216      215      420      421
        1        1        1        1       12        0        0        0        4        0        4      215      214      419      420
        1        1        1        1       12        0        0        0        4        0        5      214      213      418      419
        1        1        1        1       12        0        0        0        4        0        6      213      212      417      418
        1        1        1        1       12        0        0        0        4        0        7      212      211      416      417
        1        1        1        1       12        0        0        0        4        0        8      211      210      415      416
        1        1        1        1       12        0        0        0        4        0        9      210      209      414      415
        1        1        1        1       12        0        0        0        4        0       10      209      208      413      414
        1        1        1        1       12        0        0        0        4        0       11      208      207      412      413
        1        1        1        1       12        0        0        0        4        0       12      207      206      411      412
        1        1        1        1       12        0        0        0        4        0       13      206      205      410      411
        1        1        1        1       12        0        0        0        4        0       14      205      204      409      410
        1        1        1        1       12        0        0        0        4        0       15      204      203      408      409
        1        1        1        1       12        0        0        0        4        0       16      203      202      407      408
        1        1        1        1       12        0        0        0        4        0       17      202      201      406      407
        1        1        1        1       12        0        0        0        4        0       18      201      200      405      406
        1        1        1        1       12        0        0        0        4        0       19      200      199      404      405
        1        1        1        1       12        0        0        0        4        0       20      199      198      403      404
! ... 25 like lines cut
!Material Id = {827B6412-FB0A-48B6-B8F3-3D2BC89A7282}
/com,*********** Elements for Body 2 "Surface Body" ***********
et,2,181
keyo,2,3,2
eblock,19,solid,,82
(19i9)
        2        2        2        2       12        0        0        0        4        0       45      814      174      173      779
        2        2        2        2       12        0        0        0        4        0       46      779      378      379      814
        2        2        2        2       12        0        0        0        4        0       47      173      172      780      779
        2        2        2        2       12        0        0        0        4        0       48      780      377      378      779
        2        2        2        2       12        0        0        0        4        0       49      172      171      781      780
        2        2        2        2       12        0        0        0        4        0       50      781      376      377      780
        2        2        2        2       12        0        0        0        4        0       51      171      170      782      781
        2        2        2        2       12        0        0        0        4        0       52      782      375      376      781
        2        2        2        2       12        0        0        0        4        0       53      170      169      783      782
        2        2        2        2       12        0        0        0        4        0       54      783      374      375      782
        2        2        2        2       12        0        0        0        4        0       55      169      168      784      783
        2        2        2        2       12        0        0        0        4        0       56      784      373      374      783
        2        2        2        2       12        0        0        0        4        0       57      168      167      785      784
        2        2        2        2       12        0        0        0        4        0       58      785      372      373      784
        2        2        2        2       12        0        0        0        4        0       59      167      166      786      785
        2        2        2        2       12        0        0        0        4        0       60      786      371      372      785
        2        2        2        2       12        0        0        0        4        0       61      166      165      787      786
        2        2        2        2       12        0        0        0        4        0       62      787      370      371      786
        2        2        2        2       12        0        0        0        4        0       63      165      164      788      787
        2        2        2        2       12        0        0        0        4        0       64      788      369      370      787
! ... 63 like lines cut
!Material Id = {C371D2D9-B5D4-475A-A172-9824690A588E}
/com,*********** Elements for Body 3 "Surface Body" ***********
et,3,181
keyo,3,3,2
eblock,19,solid,,106
(19i9)
        3        3        3        3       12        0        0        0        4        0      127      748      747      737      737
        3        3        3        3       12        0        0        0        4        0      128      737      736      749      748
        3        3        3        3       12        0        0        0        4        0      129      736      735      750      749
        3        3        3        3       12        0        0        0        4        0      130      735      734      751      750
        3        3        3        3       12        0        0        0        4        0      131      734      733      752      751
        3        3        3        3       12        0        0        0        4        0      132      733      732      753      752
        3        3        3        3       12        0        0        0        4        0      133      732      731      754      753
        3        3        3        3       12        0        0        0        4        0      134      731      730      755      754
        3        3        3        3       12        0        0        0        4        0      135      730      729      756      755
        3        3        3        3       12        0        0        0        4        0      136      729      728      757      756
        3        3        3        3       12        0        0        0        4        0      137      728      727      758      757
        3        3        3        3       12        0        0        0        4        0      138      727      726      759      758
        3        3        3        3       12        0        0        0        4        0      139      726      725      760      759
        3        3        3        3       12        0        0        0        4        0      140      725      724      761      760
        3        3        3        3       12        0        0        0        4        0      141      724      723      762      761
        3        3        3        3       12        0        0        0        4        0      142      723      722      763      762
        3        3        3        3       12        0        0        0        4        0      143      722      721      764      763
        3        3        3        3       12        0        0        0        4        0      144      721      720      765      764
        3        3        3        3       12        0        0        0        4        0      145      720      719      766      765
        3        3        3        3       12        0        0        0        4        0      146      719      718      767      766
! ... 87 like lines cut
!Material Id = {F2103D50-4DE2-4E80-8C7A-84EF112CA620}
/com,*********** Elements for Body 4 "Surface Body" ***********
et,4,181
keyo,4,3,2
eblock,19,solid,,136
(19i9)
        4        4        4        4       12        0        0        0        4        0      233      633      632      634      634
        4        4        4        4       12        0        0        0        4        0      234      633      631      628      632
        4        4        4        4       12        0        0        0        4        0      235      631      630      715      628
        4        4        4        4       12        0        0        0        4        0      236      630      670      627      715
        4        4        4        4       12        0        0        0        4        0      237      715      708      707      628
        4        4        4        4       12        0        0        0        4        0      238      715      627      709      708
        4        4        4        4       12        0        0        0        4        0      239      627      629      710      709
        4        4        4        4       12        0        0        0        4        0      240      627      670      671      629
        4        4        4        4       12        0        0        0        4        0      241      707      706      632      628
        4        4        4        4       12        0        0        0        4        0      242      629      712      713      710
        4        4        4        4       12        0        0        0        4        0      243      671      711      712      629
        4        4        4        4       12        0        0        0        4        0      244      630      297      298      670
        4        4        4        4       12        0        0        0        4        0      245      631      296      297      630
        4        4        4        4       12        0        0        0        4        0      246      633      295      296      631
        4        4        4        4       12        0        0        0        4        0      247      632      706      705      634
        4        4        4        4       12        0        0        0        4        0      248      634      294      295      633
        4        4        4        4       12        0        0        0        4        0      249      705      704      635      634
        4        4        4        4       12        0        0        0        4        0      250      635      293      294      634
        4        4        4        4       12        0        0        0        4        0      251      704      703      636      635
        4        4        4        4       12        0        0        0        4        0      252      636      292      293      635
! ... 117 like lines cut
!Material Id = {6576EE63-0E9D-485F-923B-E5937043911E}
/com,*********** Elements for Body 5 "Surface Body" ***********
et,5,181
keyo,5,3,2
eblock,19,solid,,2310
(19i9)
        5        5        5        5       12        0        0        0        4        0      608     3329     4923     5128      822
        5        5        5        5       12        0        0        0        4        0      609     3330     4928     4923     3329
        5        5        5        5       12        0        0        0        4        0      610     3331     4933     4928     3330
        5        5        5        5       12        0        0        0        4        0      611     3332     4938     4933     3331
        5        5        5        5       12        0        0        0        4        0      612     3333     4943     4938     3332
        5        5        5        5       12        0        0        0        4        0      613     3334     4948     4943     3333
        5        5        5        5       12        0        0        0        4        0      614     3335     4953     4948     3334
        5        5        5        5       12        0        0        0        4        0      615     3336     4958     4953     3335
        5        5        5        5       12        0        0        0        4        0      616     3337     4963     4958     3336
        5        5        5        5       12        0        0        0        4        0      617     3338     4968     4963     3337
        5        5        5        5       12        0        0        0        4        0      618     3339     4973     4968     3338
        5        5        5        5       12        0        0        0        4        0      619     3340     4978     4973     3339
        5        5        5        5       12        0        0        0        4        0      620     3341     4983     4978     3340
        5        5        5        5       12        0        0        0        4        0      621     3342     4988     4983     3341
        5        5        5        5       12        0        0        0        4        0      622     3343     4993     4988     3342
        5        5        5        5       12        0        0        0        4        0      623     3344     4998     4993     3343
        5        5        5        5       12        0        0        0        4        0      624     3345     5003     4998     3344
        5        5        5        5       12        0        0        0        4        0      625     3346     5008     5003     3345
        5        5        5        5       12        0        0        0        4        0      626     3347     5013     5008     3346
        5        5        5        5       12        0        0        0        4        0      627     3348     5018     5013     3347
! ... 2291 like lines cut
!Material Id = {FB7CB85E-DEC4-4409-814F-37EB18C0CE90}
/com,*********** Elements for Body 6 "Surface Body" ***********
et,6,181
keyo,6,3,2
eblock,19,solid,,2310
(19i9)
        6        6        6        6       12        0        0        0        4        0     2918     3369     3077     2904      823
        6        6        6        6       12        0        0        0        4        0     2919     3368     3083     3077     3369
        6        6        6        6       12        0        0        0        4        0     2920     3367     3089     3083     3368
        6        6        6        6       12        0        0        0        4        0     2921     3366     3095     3089     3367
        6        6        6        6       12        0        0        0        4        0     2922     3365     3101     3095     3366
        6        6        6        6       12        0        0        0        4        0     2923     3364     3107     3101     3365
        6        6        6        6       12        0        0        0        4        0     2924     3363     3113     3107     3364
        6        6        6        6       12        0        0        0        4        0     2925     3362     3119     3113     3363
        6        6        6        6       12        0        0        0        4        0     2926     3361     3125     3119     3362
        6        6        6        6       12        0        0        0        4        0     2927     3360     3131     3125     3361
        6        6        6        6       12        0        0        0        4        0     2928     3359     3137     3131     3360
        6        6        6        6       12        0        0        0        4        0     2929     3358     3143     3137     3359
        6        6        6        6       12        0        0        0        4        0     2930     3357     3149     3143     3358
        6        6        6        6       12        0        0        0        4        0     2931     3356     3155     3149     3357
        6        6        6        6       12        0        0        0        4        0     2932     3355     3161     3155     3356
        6        6        6        6       12        0        0        0        4        0     2933     3354     3167     3161     3355
        6        6        6        6       12        0        0        0        4        0     2934     3353     3173     3167     3354
        6        6        6        6       12        0        0        0        4        0     2935     3352     3179     3173     3353
        6        6        6        6       12        0        0        0        4        0     2936     3351     3185     3179     3352
        6        6        6        6       12        0        0        0        4        0     2937     3350     3191     3185     3351
! ... 2291 like lines cut
!Material Id = {C7161406-EFA1-41FB-93EC-D2AC9BB558C3}
/com,*********** Elements for Body 7 "Surface Body" ***********
et,7,181
keyo,7,3,2
eblock,19,solid,,239
(19i9)
        7        7        7        7       12        0        0        0        4        0      369      599      598      462      462
        7        7        7        7       12        0        0        0        4        0      370      459      468      604      604
        7        7        7        7       12        0        0        0        4        0      371      438      456      455      455
        7        7        7        7       12        0        0        0        4        0      372      450      437      607      607
        7        7        7        7       12        0        0        0        4        0      373      437      449      608      607
        7        7        7        7       12        0        0        0        4        0      374      608      448      451      607
        7        7        7        7       12        0        0        0        4        0      375      448      447      452      451
        7        7        7        7       12        0        0        0        4        0      376      447      446      453      452
        7        7        7        7       12        0        0        0        4        0      377      446      603      602      453
        7        7        7        7       12        0        0        0        4        0      378      603      445      454      602
        7        7        7        7       12        0        0        0        4        0      379      455      444      443      438
        7        7        7        7       12        0        0        0        4        0      380      444      455      454      445
        7        7        7        7       12        0        0        0        4        0      381      450      439      440      437
        7        7        7        7       12        0        0        0        4        0      382      440      616      449      437
        7        7        7        7       12        0        0        0        4        0      383      443      442      456      438
        7        7        7        7       12        0        0        0        4        0      384      439      461      441      440
        7        7        7        7       12        0        0        0        4        0      385      450      625      480      439
        7        7        7        7       12        0        0        0        4        0      386      480      615      461      439
        7        7        7        7       12        0        0        0        4        0      387      461      479      478      441
        7        7        7        7       12        0        0        0        4        0      388      441      460      616      440
! ... 220 like lines cut
!Material Id = {0EC1E990-3809-493E-B7B0-7F7CA34770C1}
/com,*********** Elements for Body 8 "Surface Body" ***********
et,8,181
keyo,8,3,2
eblock,19,solid,,220
(19i9)
        8        8        8        8       12        0        0        0        4        0     5228     1006      962     1002       11
        8        8        8        8       12        0        0        0        4        0     5229     1007      966      962     1006
        8        8        8        8       12        0        0        0        4        0     5230     1008      970      966     1007
        8        8        8        8       12        0        0        0        4        0     5231     1009      974      970     1008
        8        8        8        8       12        0        0        0        4        0     5232     1010      978      974     1009
        8        8        8        8       12        0        0        0        4        0     5233     1011      982      978     1010
        8        8        8        8       12        0        0        0        4        0     5234     1012      986      982     1011
        8        8        8        8       12        0        0        0        4        0     5235     1013      990      986     1012
        8        8        8        8       12        0        0        0        4        0     5236     1014      994      990     1013
        8        8        8        8       12        0        0        0        4        0     5237      833     1001      994     1014
        8        8        8        8       12        0        0        0        4        0     5238      962      963     1003     1002
        8        8        8        8       12        0        0        0        4        0     5239      966      967      963      962
        8        8        8        8       12        0        0        0        4        0     5240      970      971      967      966
        8        8        8        8       12        0        0        0        4        0     5241      974      975      971      970
        8        8        8        8       12        0        0        0        4        0     5242      978      979      975      974
        8        8        8        8       12        0        0        0        4        0     5243      982      983      979      978
        8        8        8        8       12        0        0        0        4        0     5244      986      987      983      982
        8        8        8        8       12        0        0        0        4        0     5245      990      991      987      986
        8        8        8        8       12        0        0        0        4        0     5246      994      995      991      990
        8        8        8        8       12        0        0        0        4        0     5247     1001     1000      995      994
! ... 201 like lines cut
!Material Id = {D206AACA-2AAA-40E3-9D1A-84404471B7D1}
/com,*********** Elements for Body 9 "Surface Body" ***********
et,9,181
keyo,9,3,2
eblock,19,solid,,15
(19i9)
        9        9        9        9       12        0        0        0        4        0     5448     5300      821     3033     3033
        9        9        9        9       12        0        0        0        4        0     5449     3033     3034     5303     5303
        9        9        9        9       12        0        0        0        4        0     5456     3328      822     5128     5128
        9        9        9        9       12        0        0        0        4        0     5457     3326     3327     5129     5129
        9        9        9        9       12        0        0        0        4        0     5450     5302     3035        2     5301
        9        9        9        9       12        0        0        0        4        0     5451     5302     5303     3034     3035
        9        9        9        9       12        0        0        0        4        0     5452     5301     5297     5298     5302
        9        9        9        9       12        0        0        0        4        0     5453        2        3     5297     5301
        9        9        9        9       12        0        0        0        4        0     5454     5302     5298     5299     5303
        9        9        9        9       12        0        0        0        4        0     5455     5303     5299     5300     3033
        9        9        9        9       12        0        0        0        4        0     5458     5129     3327     3328     5128
        9        9        9        9       12        0        0        0        4        0     5459     5129     5130     3325     3326
        9        9        9        9       12        0        0        0        4        0     5460     5130     5131     3324     3325
        9        9        9        9       12        0        0        0        4        0     5461     5131     5132     3323     3324
        9        9        9        9       12        0        0        0        4        0     5462     5132        3        2     3323
-1
!Material Id = {493716AF-83A1-49A2-B525-7502F9429A3F}
/wb,elem,end               !  done creating elements
/com,*********** Send User Defined Coordinate System(s) ***********
local,12,0,0.,0.,0.,0.,0.,0.
csys,0
toffst,273.15,  ! Temperature offset from absolute zero
/com,*********** Set Reference Temperature ***********
tref,22.
/wb,mat,start              !  starting to send materials
/com,*********** Send Materials ***********
MP,EX,1,113750000000,	! Pa
MP,EY,1,7583000000,	! Pa
MP,EZ,1,7583000000,	! Pa
MP,PRXY,1,0.32,
MP,PRYZ,1,0.37,
MP,PRXZ,1,0.35,
MP,GXY,1,5440000000,	! Pa
MP,GYZ,1,2964000000,	! Pa
MP,GXZ,1,2964000000,	! Pa
MP,DENS,1,1550,	! kg m^-3

MP,EX,2,113750000000,	! Pa
MP,EY,2,7583000000,	! Pa
MP,EZ,2,7583000000,	! Pa
MP,PRXY,2,0.32,
MP,PRYZ,2,0.37,
MP,PRXZ,2,0.35,
MP,GXY,2,5440000000,	! Pa
MP,GYZ,2,2964000000,	! Pa
MP,GXZ,2,2964000000,	! Pa
MP,DENS,2,1550,	! kg m^-3

MP,EX,3,113750000000,	! Pa
MP,EY,3,7583000000,	! Pa
MP,EZ,3,7583000000,	! Pa
MP,PRXY,3,0.32,
MP,PRYZ,3,0.37,
MP,PRXZ,3,0.35,
MP,GXY,3,5440000000,	! Pa
MP,GYZ,3,2964000000,	! Pa
MP,GXZ,3,2964000000,	! Pa
MP,DENS,3,1550,	! kg m^-3

MP,EX,4,113750000000,	! Pa
MP,EY,4,7583000000,	! Pa
MP,EZ,4,7583000000,	! Pa
MP,PRXY,4,0.32,
MP,PRYZ,4,0.37,
MP,PRXZ,4,0.35,
MP,GXY,4,5440000000,	! Pa
MP,GYZ,4,2964000000,	! Pa
MP,GXZ,4,2964000000,	! Pa
MP,DENS,4,1550,	! kg m^-3

MP,EX,5,113750000000,	! Pa
MP,EY,5,7583000000,	! Pa
MP,EZ,5,7583000000,	! Pa
MP,PRXY,5,0.32,
MP,PRYZ,5,0.37,
MP,PRXZ,5,0.35,
MP,GXY,5,5440000000,	! Pa
MP,GYZ,5,2964000000,	! Pa
MP,GXZ,5,2964000000,	! Pa
MP,DENS,5,1550,	! kg m^-3

MP,EX,6,113750000000,	! Pa
MP,EY,6,7583000000,	! Pa
MP,EZ,6,7583000000,	! Pa
MP,PRXY,6,0.32,
MP,PRYZ,6,0.37,
MP,PRXZ,6,0.35,
MP,GXY,6,5440000000,	! Pa
MP,GYZ,6,2964000000,	! Pa
MP,GXZ,6,2964000000,	! Pa
MP,DENS,6,1550,	! kg m^-3

MP,EX,7,113750000000,	! Pa
MP,EY,7,7583000000,	! Pa
MP,EZ,7,7583000000,	! Pa
MP,PRXY,7,0.32,
MP,PRYZ,7,0.37,
MP,PRXZ,7,0.35,
MP,GXY,7,5440000000,	! Pa
MP,GYZ,7,2964000000,	! Pa
MP,GXZ,7,2964000000,	! Pa
MP,DENS,7,1550,	! kg m^-3

MP,EX,8,113750000000,	! Pa
MP,EY,8,7583000000,	! Pa
MP,EZ,8,7583000000,	! Pa
MP,PRXY,8,0.32,
MP,PRYZ,8,0.37,
MP,PRXZ,8,0.35,
MP,GXY,8,5440000000,	! Pa
MP,GYZ,8,2964000000,	! Pa
MP,GXZ,8,2964000000,	! Pa
MP,DENS,8,1550,	! kg m^-3

MP,EX,9,113750000000,	! Pa
MP,EY,9,7583000000,	! Pa
MP,EZ,9,7583000000,	! Pa
MP,PRXY,9,0.32,
MP,PRYZ,9,0.37,
MP,PRXZ,9,0.35,
MP,GXY,9,5440000000,	! Pa
MP,GYZ,9,2964000000,	! Pa
MP,GXZ,9,2964000000,	! Pa
MP,DENS,9,1550,	! kg m^-3

/wb,mat,end                !  done sending materials
/com,*********** Send Sheet Properties ***********
sectype,1,shell
secdata,1.e-003
secoff,mid

sectype,2,shell
secdata,1.e-003
secoff,mid

sectype,3,shell
secdata,1.e-003
secoff,mid

sectype,4,shell
secdata,1.e-003
secoff,mid

sectype,5,shell
secdata,1.e-003
secoff,mid

sectype,6,shell
secdata,1.e-003
secoff,mid

sectype,7,shell
secdata,1.e-003
secoff,mid

sectype,8,shell
secdata,1.e-003
secoff,mid

sectype,9,shell
secdata,1.e-003
secoff,mid

/com,*********** Send Thickness "Thickness" ***********
CMBLOCK,_CM81   ,ELEM,     4855
(8i10)
       608       609       610       611       612       613       614       615
       616       617       618       619       620       621       622       623
       624       625       626       627       628       629       630       631
       632       633       634       635       636       637       638       639
       640       641       642       643       644       645       646       647
       648       649       650       651       652       653       654       655
       656       657       658       659       660       661       662       663
       664       665       666       667       668       669       670       671
       672       673       674       675       676       677       678       679
       680       681       682       683       684       685       686       687
       688       689       690       691       692       693       694       695
       696       697       698       699       700       701       702       703
       704       705       706       707       708       709       710       711
       712       713       714       715       716       717       718       719
       720       721       722       723       724       725       726       727
       728       729       730       731       732       733       734       735
       736       737       738       739       740       741       742       743
       744       745       746       747       748       749       750       751
       752       753       754       755       756       757       758       759
       760       761       762       763       764       765       766       767
! ... 587 like lines cut
*dim, _thickvari81, table, 2, 1, 1, x
_thickvari81( 1, 0, 1 ) = -44.2
_thickvari81( 2, 0, 1 ) = -1.
_thickvari81( 0, 0, 1 ) = 0.
_thickvari81( 1, 1, 1 ) = 5.e-003
_thickvari81( 2, 1, 1 ) = 0.1
sectype,10,shell
secfunction,%_thickvari81%, 0
secoff,mid
emod, _cm81, secnum, 10
/com,*********** Send Thickness "Thickness 2" ***********
CMBLOCK,_CM83   ,ELEM,      607
(8i10)
         1         2         3         4         5         6         7         8
         9        10        11        12        13        14        15        16
        17        18        19        20        21        22        23        24
        25        26        27        28        29        30        31        32
        33        34        35        36        37        38        39        40
        41        42        43        44        45        46        47        48
        49        50        51        52        53        54        55        56
        57        58        59        60        61        62        63        64
        65        66        67        68        69        70        71        72
        73        74        75        76        77        78        79        80
        81        82        83        84        85        86        87        88
        89        90        91        92        93        94        95        96
        97        98        99       100       101       102       103       104
       105       106       107       108       109       110       111       112
       113       114       115       116       117       118       119       120
       121       122       123       124       125       126       127       128
       129       130       131       132       133       134       135       136
       137       138       139       140       141       142       143       144
       145       146       147       148       149       150       151       152
       153       154       155       156       157       158       159       160
! ... 56 like lines cut
*dim, _thickvari83, table, 2, 1, 1, x
_thickvari83( 1, 0, 1 ) = -44.2
_thickvari83( 2, 0, 1 ) = -3.
_thickvari83( 0, 0, 1 ) = 0.
_thickvari83( 1, 1, 1 ) = 3.e-002
_thickvari83( 2, 1, 1 ) = 0.1
sectype,11,shell
secfunction,%_thickvari83%, 0
secoff,mid
emod, _cm83, secnum, 11
!************************* Model Summary ********************
!Surface Body,	homogonized_orthothropic,	matid,	1
!Surface Body,	homogonized_orthothropic,	matid,	2
!Surface Body,	homogonized_orthothropic,	matid,	3
!Surface Body,	homogonized_orthothropic,	matid,	4
!Surface Body,	homogonized_orthothropic,	matid,	5
!Surface Body,	homogonized_orthothropic,	matid,	6
!Surface Body,	homogonized_orthothropic,	matid,	7
!Surface Body,	homogonized_orthothropic,	matid,	8
!Surface Body,	homogonized_orthothropic,	matid,	9
!************************* End Model Summary ********************
! get the diagonal of the bounding box. Needed later for other things
*get,_xmin,node,,mnloc,x
*get,_ymin,node,,mnloc,y
*get,_zmin,node,,mnloc,z
*get,_xmax,node,,mxloc,x
*get,_ymax,node,,mxloc,y
*get,_zmax,node,,mxloc,z
_ASMDIAG=(_xmax-_xmin)*(_xmax-_xmin)+(_ymax-_ymin)*(_ymax-_ymin)+(_zmax-_zmin)*(_zmax-_zmin)
_ASMDIAG=SQRT(_ASMDIAG)
/wb,contact,start          !  starting to send contact
/wb,contact,end            !  done creating contacts
/com,*********** Send Named Selection as Node Component ***********
CMBLOCK,SPAR    ,NODE,      819
(8i10)
         1         2         3         4         5         6         7         8
         9        10        11        12        13        14        15        16
        17        18        19        20        21        22        23        24
        25        26        27        28        29        30        31        32
        33        34        35        36        37        38        39        40
        41        42        43        44        45        46        47        48
        49        50        51        52        53        54        55        56
        57        58        59        60        61        62        63        64
        65        66        67        68        69        70        71        72
        73        74        75        76        77        78        79        80
        81        82        83        84        85        86        87        88
        89        90        91        92        93        94        95        96
        97        98        99       100       101       102       103       104
       105       106       107       108       109       110       111       112
       113       114       115       116       117       118       119       120
       121       122       123       124       125       126       127       128
       129       130       131       132       133       134       135       136
       137       138       139       140       141       142       143       144
       145       146       147       148       149       150       151       152
       153       154       155       156       157       158       159       160
! ... 83 like lines cut
/com,*********** Send Named Selection as Node Component ***********
CMBLOCK,BLADESURFACE,NODE,     4906
(8i10)
         1         2         3         4         5         6         7         8
         9        10        11        12        13        14        15        16
        17        18        19        20        21        22        23        24
        25        26        27        28        29        30        31        32
        33        34        35        36        37        38        39        40
        41        42        43        44        45        46        47        48
        49        50        51        52        53        54        55        56
        57        58        59        60        61        62        63        64
        65        66        67        68        69        70        71        72
        73        74        75        76        77        78        79        80
        81        82        83        84        85        86        87        88
        89        90        91        92        93        94        95        96
        97        98        99       100       101       102       103       104
       105       106       107       108       109       110       111       112
       113       114       115       116       117       118       119       120
       121       122       123       124       125       126       127       128
       129       130       131       132       133       134       135       136
       137       138       139       140       141       142       143       144
       145       146       147       148       149       150       151       152
       153       154       155       156       157       158       159       160
! ... 594 like lines cut
/golist
/wb,load,start             !  starting to send loads
/com,*********** Define Surface Elements for Imported Load "Imported Pressure" ***********
et,12,154
keyop,12,7,1				 ! Use original area so load is constant in large deformation
keyop,12,11,2               ! Use real and not projected area
eblock,10,,,4855
(15i9)
     5464       12       12       12        0     3329     4923     5128      822
     5465       12       12       12        0     3330     4928     4923     3329
     5466       12       12       12        0     3331     4933     4928     3330
     5467       12       12       12        0     3332     4938     4933     3331
     5468       12       12       12        0     3333     4943     4938     3332
     5469       12       12       12        0     3334     4948     4943     3333
     5470       12       12       12        0     3335     4953     4948     3334
     5471       12       12       12        0     3336     4958     4953     3335
     5472       12       12       12        0     3337     4963     4958     3336
     5473       12       12       12        0     3338     4968     4963     3337
     5474       12       12       12        0     3339     4973     4968     3338
     5475       12       12       12        0     3340     4978     4973     3339
     5476       12       12       12        0     3341     4983     4978     3340
     5477       12       12       12        0     3342     4988     4983     3341
     5478       12       12       12        0     3343     4993     4988     3342
     5479       12       12       12        0     3344     4998     4993     3343
     5480       12       12       12        0     3345     5003     4998     3344
     5481       12       12       12        0     3346     5008     5003     3345
     5482       12       12       12        0     3347     5013     5008     3346
     5483       12       12       12        0     3348     5018     5013     3347
! ... 4836 like lines cut
esel,all
/com,*********** Create Remote Point "Remote Point" ***********
*set,tid,14
*set,cid,13
et,cid,175
et,tid,170
keyo,tid,2,1               ! Don't fix the pilot node
keyo,tid,4,0               ! Activate all DOF's due to large deformation
keyo,cid,12,5              ! Bonded Contact 
keyo,cid,4,0               ! Rigid CERIG style load
keyo,cid,2,2               ! MPC style contact
mat,13
real,13
type,13
en,10319,832
en,10320,833
en,10321,834
en,10322,835
en,10323,863
en,10324,864
en,10325,865
en,10326,941
en,10327,942
en,10328,943
en,10329,944
en,10330,945
en,10331,946
en,10332,998
en,10333,999
en,10334,1000
en,10335,1001
en,10336,1060
en,10337,1061
en,10338,1062
en,10339,1063
en,10340,1064
*set,_npilot,5304
_npilot85=_npilot
type,tid
mat ,cid
real,cid
tshape,pilo
en,10341,_npilot
tshape
/com,*********** Construct Remote Displacement ***********

/COM,*** Create a component for all remote displacements ***
CMBLOCK,REMOTEDISPALL,NODE,        1
(8i10)
      5304

/com,*********** Define Rotational Velocity ***********
cglo,0.,0.,0.
/gst,on,on
fini
*get,_numnode,node,0,count
*get,_numelem,elem,0,count
*get, _MAXELEMNUM, elem, 0, NUM, MAX
*get, _MAXNODENUM, node, 0, NUM, MAX
*get, _MAXELEMTYPE, etyp, 0, NUM, MAX
*get, _MAXREALCONST, real, 0, NUM, MAX
/go
/wb,load,end               !  done creating loads
/com,--- Number of total nodes = %_numnode%
/com,--- Number of contact elements = 0
/com,--- Number of spring elements = 0
/com,--- Number of bearing elements = 0
/com,--- Number of solid elements = 5462
/com,--- Number of condensed parts = 0
/com,--- Number of total elements = %_numelem%
*get,_wallbsol,active,,time,wall
/com,****************************************************************************
/com,*************************    SOLUTION       ********************************
/com,****************************************************************************
/solu
antype,0                   ! static analysis
nlgeom,on                  ! Turn on Large Deformation Effects
eqsl,sparse,,,,,1
cntr,print,1               ! print out contact info and also make no initial contact an error
dmpoption,emat,no             ! Don't combine emat file for DANSYS
dmpoption,esav,no             ! Don't combine esav file for DANSYS
nldiag,cont,iter           ! print out contact info each equilibrium iteration
rescontrol,define,last,last,,dele	   ! Program Controlled
/com,****************************************************
/com,******************* SOLVE FOR LS 1 OF 1 ****************
d,5304,ux,0.
d,5304,uy,0.
d,5304,uz,0.
d,5304,rotx,0.
d,5304,roty,0.
d,5304,rotz,0.
cgom,0.,0.,-2.22
/nopr
/gopr
/com,*********** Create Imported Load "Imported Pressure" ***********
/nopr
sfe,5464,1,pres,0,24.3777003139539
sfe,5465,1,pres,0,646.218692852941
sfe,5466,1,pres,0,-58.2372011666536
sfe,5467,1,pres,0,-818.07166339843
sfe,5468,1,pres,0,-895.12892157916
sfe,5469,1,pres,0,-875.487652394071
sfe,5470,1,pres,0,375.166544078312
sfe,5471,1,pres,0,389.478076521703
sfe,5472,1,pres,0,5.3761567599513
sfe,5473,1,pres,0,756.852651392403
sfe,5474,1,pres,0,-132.865983116503
sfe,5475,1,pres,0,854.558365745166
sfe,5476,1,pres,0,240.255702135255
sfe,5477,1,pres,0,1113.44545001899
sfe,5478,1,pres,0,766.456137203273
sfe,5479,1,pres,0,1027.52195673164
sfe,5480,1,pres,0,407.029766576776
sfe,5481,1,pres,0,642.193640224818
sfe,5482,1,pres,0,993.80549748801
sfe,5483,1,pres,0,-767.844915033994
! ... 4835 like lines cut
autots,on                  ! Workbench Program Controlled automatic time stepping
nsub,1,10,1                ! due to presence of general nonlinear
time,1.
outres,erase
outres,all,none
outres,nsol,all,
outres,rsol,all
outres,strs,all,
outres,eangl,all
outres,fmag,all
outres,curd,all
outres,nldat,all
outres,eheat,all
outres,etmp,all
outres,srfs,all
outres,cont,all
outres,bkstr,all
outres,veng,all
outres,epel,all,
outres,eppl,all,
stabilize,off                   ! Stabilization turned OFF by user
! *********** WB SOLVE COMMAND ***********
! check interactive state
*get,ANSINTER_,active,,int
*if,ANSINTER_,ne,0,then
/eof
*endif
solve
/com *************** Write FE CONNECTORS ********* 
CEWRITE,file,ce,,INTE
/com,****************************************************
/com,*************** FINISHED SOLVE FOR LS 1 *************
*get,_wallasol,active,,time,wall
/nopr
*get,_numnode,node,0,count
*get,_numelem,elem,0,count
*get, _MAXELEMNUM, elem, 0, NUM, MAX
*get, _MAXNODENUM, node, 0, NUM, MAX,,,INTERNAL
*get, _MAXELEMTYPE, etyp, 0, NUM, MAX
*get, _MAXREALCONST, real, 0, NUM, MAX
/gopr
/post1
xmlo,ENCODING,ISO-8859-1
xmlo,parm
/xml,parm,xml
fini
/gopr
*get,_walldone,active,,time,wall
_preptime=(_wallbsol-_wallstrt)*3600
_solvtime=(_wallasol-_wallbsol)*3600
_posttime=(_walldone-_wallasol)*3600
_totaltim=(_walldone-_wallstrt)*3600
*get,_dlbratio,active,0,solu,dlbr
/com,--- Number of total nodes = %_numnode%
/com,--- Number of total elements = %_numelem%
/com,--- Element load balance ratio = %_dlbratio%
/wb,file,end               ! done with WB generated input
