
 ANSYS Academic Teaching Introductory              


 *------------------------------------------------------------------*
 |                                                                  |
 |   W E L C O M E   T O   T H E   A N S Y S (R)  P R O G R A M     |
 |                                                                  |
 *------------------------------------------------------------------*




 ***************************************************************
 *            ANSYS 2019 R1          LEGAL NOTICES             *
 ***************************************************************
 *                                                             *
 * Copyright 1971-2018 ANSYS, Inc.  All rights reserved.       *
 * Unauthorized use, distribution or duplication is            *
 * prohibited.                                                 *
 *                                                             *
 * Ansys is a registered trademark of ANSYS, Inc. or its       *
 * subsidiaries in the United States or other countries.       *
 * See the ANSYS, Inc. online documentation or the ANSYS, Inc. *
 * documentation CD or online help for the complete Legal      *
 * Notice.                                                     *
 *                                                             *
 ***************************************************************
 *                                                             *
 * THIS ANSYS SOFTWARE PRODUCT AND PROGRAM DOCUMENTATION       *
 * INCLUDE TRADE SECRETS AND CONFIDENTIAL AND PROPRIETARY      *
 * PRODUCTS OF ANSYS, INC., ITS SUBSIDIARIES, OR LICENSORS.    *
 * The software products and documentation are furnished by    *
 * ANSYS, Inc. or its subsidiaries under a software license    *
 * agreement that contains provisions concerning               *
 * non-disclosure, copying, length and nature of use,          *
 * compliance with exporting laws, warranties, disclaimers,    *
 * limitations of liability, and remedies, and other           *
 * provisions.  The software products and documentation may be *
 * used, disclosed, transferred, or copied only in accordance  *
 * with the terms and conditions of that software license      *
 * agreement.                                                  *
 *                                                             *
 * ANSYS, Inc. is a UL registered                              *
 * ISO 9001:2015 company.                                      *
 *                                                             *
 ***************************************************************
 *                                                             *
 * This product is subject to U.S. laws governing export and   *
 * re-export.                                                  *
 *                                                             *
 * For U.S. Government users, except as specifically granted   *
 * by the ANSYS, Inc. software license agreement, the use,     *
 * duplication, or disclosure by the United States Government  *
 * is subject to restrictions stated in the ANSYS, Inc.        *
 * software license agreement and FAR 12.212 (for non-DOD      *
 * licenses).                                                  *
 *                                                             *
 ***************************************************************

 2019 R1 
     
 Point Releases and Patches installed:   
     
 Academic Student 2019 R1
 FENSAP-ICE 2019 R1  


          *****  ANSYS COMMAND LINE ARGUMENTS  *****
  BATCH MODE REQUESTED (-b)    = NOLIST
  INPUT FILE COPY MODE (-c)    = COPY
  DISTRIBUTED MEMORY PARALLEL REQUESTED
       2 PARALLEL PROCESSES REQUESTED WITH SINGLE THREAD PER PROCESS
    TOTAL OF     2 CORES REQUESTED
  DESIGNXPLORER REQUESTED
  INPUT FILE NAME              = D:\SPSProjects\ANSYS_projects\_ProjectScratch\Scr434\dummy.dat
  OUTPUT FILE NAME             = D:\SPSProjects\ANSYS_projects\_ProjectScratch\Scr434\solve.out
  START-UP FILE MODE           = NOREAD
  STOP FILE MODE               = NOREAD

 RELEASE= 2019 R1              BUILD= 19.3      UP20181204   VERSION=WINDOWS x64 
 CURRENT JOBNAME=file0  11:46:36  APR 17, 2019 CP=      0.266


 PARAMETER _DS_PROGRESS =     999.0000000    

 /INPUT FILE= ds.dat  LINE=       0



 *** NOTE ***                            CP =       0.516   TIME= 11:46:37
 The /CONFIG,NOELDB command is not valid in a Distributed ANSYS          
 solution.  Command is ignored.                                          

 *GET  _WALLSTRT  FROM  ACTI  ITEM=TIME WALL  VALUE=  11.7769444    

 TITLE= 
 windTurbineCFD--Static Structural (B5)                                        


 SET PARAMETER DIMENSIONS ON  _WB_PROJECTSCRATCH_DIR
  TYPE=STRI  DIMENSIONS=      248        1        1

 PARAMETER _WB_PROJECTSCRATCH_DIR(1) = D:\SPSProjects\ANSYS_projects\_ProjectScratch\Scr434\

 SET PARAMETER DIMENSIONS ON  _WB_SOLVERFILES_DIR
  TYPE=STRI  DIMENSIONS=      248        1        1

 PARAMETER _WB_SOLVERFILES_DIR(1) = D:\SPSProjects\ANSYS_projects\windTurbineCFD_files\dp0\SYS\MECH\

 SET PARAMETER DIMENSIONS ON  _WB_USERFILES_DIR
  TYPE=STRI  DIMENSIONS=      248        1        1

 PARAMETER _WB_USERFILES_DIR(1) = D:\SPSProjects\ANSYS_projects\windTurbineCFD_files\user_files\
 --- Data in consistent MKS units. See Solving Units in the help system for more

 MKS UNITS SPECIFIED FOR INTERNAL    
  LENGTH        (l)  = METER (M)
  MASS          (M)  = KILOGRAM (KG)
  TIME          (t)  = SECOND (SEC)
  TEMPERATURE   (T)  = CELSIUS (C)
  TOFFSET            = 273.0
  CHARGE        (Q)  = COULOMB
  FORCE         (f)  = NEWTON (N) (KG-M/SEC2)
  HEAT               = JOULE (N-M)

  PRESSURE           = PASCAL (NEWTON/M**2)
  ENERGY        (W)  = JOULE (N-M)
  POWER         (P)  = WATT (N-M/SEC)
  CURRENT       (i)  = AMPERE (COULOMBS/SEC)
  CAPACITANCE   (C)  = FARAD
  INDUCTANCE    (L)  = HENRY
  MAGNETIC FLUX      = WEBER
  RESISTANCE    (R)  = OHM
  ELECTRIC POTENTIAL = VOLT

 INPUT  UNITS ARE ALSO SET TO MKS 

 *** ANSYS - ENGINEERING ANALYSIS SYSTEM  RELEASE 2019 R1          19.3     ***
 DISTRIBUTED ANSYS Academic Teaching Introductory              

 01055371  VERSION=WINDOWS x64   11:46:37  APR 17, 2019 CP=      0.531

 windTurbineCFD--Static Structural (B5)                                        



          ***** ANSYS ANALYSIS DEFINITION (PREP7) *****
 *********** Nodes for the whole assembly ***********
 *********** Nodes for all Remote Points ***********
 *********** Elements for Body 1 "Surface Body" ***********
 *********** Elements for Body 2 "Surface Body" ***********
 *********** Elements for Body 3 "Surface Body" ***********
 *********** Elements for Body 4 "Surface Body" ***********
 *********** Elements for Body 5 "Surface Body" ***********
 *********** Elements for Body 6 "Surface Body" ***********
 *********** Elements for Body 7 "Surface Body" ***********
 *********** Elements for Body 8 "Surface Body" ***********
 *********** Elements for Body 9 "Surface Body" ***********
 *********** Send User Defined Coordinate System(s) ***********
 *********** Set Reference Temperature ***********
 *********** Send Materials ***********
 *********** Send Sheet Properties ***********
 *********** Send Thickness "Thickness" ***********
 *********** Send Thickness "Thickness 2" ***********
 *********** Send Named Selection as Node Component ***********
 *********** Send Named Selection as Node Component ***********
 *********** Define Surface Elements for Imported Load "Imported Pressure" *****
 *********** Create Remote Point "Remote Point" ***********
 *********** Construct Remote Displacement ***********
 *** Create a component for all remote displacements ***
 *********** Define Rotational Velocity ***********


 ***** ROUTINE COMPLETED *****  CP =         0.797


 --- Number of total nodes = 5304
 --- Number of contact elements = 0
 --- Number of spring elements = 0
 --- Number of bearing elements = 0
 --- Number of solid elements = 5462
 --- Number of condensed parts = 0
 --- Number of total elements = 10340

 *GET  _WALLBSOL  FROM  ACTI  ITEM=TIME WALL  VALUE=  11.7769444    
 ****************************************************************************
 *************************    SOLUTION       ********************************
 ****************************************************************************

 *****  ANSYS SOLUTION ROUTINE  *****


 PERFORM A STATIC ANALYSIS
  THIS WILL BE A NEW ANALYSIS

 LARGE DEFORMATION ANALYSIS

 USE SPARSE MATRIX DIRECT SOLVER

 CONTACT INFORMATION PRINTOUT LEVEL       1

 DO NOT COMBINE ELEMENT MATRIX FILES (.emat) AFTER DISTRIBUTED PARALLEL SOLUTION

 DO NOT COMBINE ELEMENT SAVE DATA FILES (.esav) AFTER DISTRIBUTED PARALLEL SOLUTION

 NLDIAG: Nonlinear diagnostics CONT option is set to ON. 
         Writing frequency : each ITERATION.

 DEFINE RESTART CONTROL FOR LOADSTEP LAST
 AT FREQUENCY OF LAST AND NUMBER FOR OVERWRITE IS    0

 DELETE RESTART FILES OF ENDSTEP
 ****************************************************
 ******************* SOLVE FOR LS 1 OF 1 ****************

 SPECIFIED CONSTRAINT UX   FOR SELECTED NODES         5304 TO        5304 BY           1
 REAL=  0.00000000       IMAG=  0.00000000    

 SPECIFIED CONSTRAINT UY   FOR SELECTED NODES         5304 TO        5304 BY           1
 REAL=  0.00000000       IMAG=  0.00000000    

 SPECIFIED CONSTRAINT UZ   FOR SELECTED NODES         5304 TO        5304 BY           1
 REAL=  0.00000000       IMAG=  0.00000000    

 SPECIFIED CONSTRAINT ROTX FOR SELECTED NODES         5304 TO        5304 BY           1
 REAL=  0.00000000       IMAG=  0.00000000    

 SPECIFIED CONSTRAINT ROTY FOR SELECTED NODES         5304 TO        5304 BY           1
 REAL=  0.00000000       IMAG=  0.00000000    

 SPECIFIED CONSTRAINT ROTZ FOR SELECTED NODES         5304 TO        5304 BY           1
 REAL=  0.00000000       IMAG=  0.00000000    

 CGOMGA=  0.0000      0.0000     -2.2200    

 PRINTOUT RESUMED BY /GOP
 *********** Create Imported Load "Imported Pressure" ***********

 ERASE THE CURRENT DATABASE OUTPUT CONTROL TABLE.


 *****  ANSYS SOLVE    COMMAND  *****

 *** WARNING ***                         CP =       1.750   TIME= 11:46:38
 Element shape checking is currently inactive.  Issue SHPP,ON or         
 SHPP,WARN to reactivate, if desired.                                    

 *** SELECTION OF ELEMENT TECHNOLOGIES FOR APPLICABLE ELEMENTS ***
      --- GIVE SUGGESTIONS AND RESET THE KEY OPTIONS ---

 ELEMENT TYPE    1 IS SHELL181. IT IS ASSOCIATED WITH ELASTOPLASTIC 
 MATERIALS ONLY. KEYOPT(8)=2 IS SUGGESTED AND KEYOPT(3)=2 IS SUGGESTED FOR
 HIGHER ACCURACY OF MEMBRANE STRESSES; OTHERWISE, KEYOPT(3)=0 IS SUGGESTED. 
 KEYOPT(8) HAS BEEN RESET BUT KEYOPT(3) CAN NOT BE RESET HERE. PLEASE RESET 
 IT MANUALLY IF NECESSARY.
  KEYOPT(1-12)=    0    0    2    0    0    0    0    2    0    0    0    0

 ELEMENT TYPE    2 IS SHELL181. IT IS ASSOCIATED WITH ELASTOPLASTIC 
 MATERIALS ONLY. KEYOPT(8)=2 IS SUGGESTED AND KEYOPT(3)=2 IS SUGGESTED FOR
 HIGHER ACCURACY OF MEMBRANE STRESSES; OTHERWISE, KEYOPT(3)=0 IS SUGGESTED. 
 KEYOPT(8) HAS BEEN RESET BUT KEYOPT(3) CAN NOT BE RESET HERE. PLEASE RESET 
 IT MANUALLY IF NECESSARY.
  KEYOPT(1-12)=    0    0    2    0    0    0    0    2    0    0    0    0

 ELEMENT TYPE    3 IS SHELL181. IT IS ASSOCIATED WITH ELASTOPLASTIC 
 MATERIALS ONLY. KEYOPT(8)=2 IS SUGGESTED AND KEYOPT(3)=2 IS SUGGESTED FOR
 HIGHER ACCURACY OF MEMBRANE STRESSES; OTHERWISE, KEYOPT(3)=0 IS SUGGESTED. 
 KEYOPT(8) HAS BEEN RESET BUT KEYOPT(3) CAN NOT BE RESET HERE. PLEASE RESET 
 IT MANUALLY IF NECESSARY.
  KEYOPT(1-12)=    0    0    2    0    0    0    0    2    0    0    0    0

 ELEMENT TYPE    4 IS SHELL181. IT IS ASSOCIATED WITH ELASTOPLASTIC 
 MATERIALS ONLY. KEYOPT(8)=2 IS SUGGESTED AND KEYOPT(3)=2 IS SUGGESTED FOR
 HIGHER ACCURACY OF MEMBRANE STRESSES; OTHERWISE, KEYOPT(3)=0 IS SUGGESTED. 
 KEYOPT(8) HAS BEEN RESET BUT KEYOPT(3) CAN NOT BE RESET HERE. PLEASE RESET 
 IT MANUALLY IF NECESSARY.
  KEYOPT(1-12)=    0    0    2    0    0    0    0    2    0    0    0    0

 ELEMENT TYPE    5 IS SHELL181. IT IS ASSOCIATED WITH ELASTOPLASTIC 
 MATERIALS ONLY. KEYOPT(8)=2 IS SUGGESTED AND KEYOPT(3)=2 IS SUGGESTED FOR
 HIGHER ACCURACY OF MEMBRANE STRESSES; OTHERWISE, KEYOPT(3)=0 IS SUGGESTED. 
 KEYOPT(8) HAS BEEN RESET BUT KEYOPT(3) CAN NOT BE RESET HERE. PLEASE RESET 
 IT MANUALLY IF NECESSARY.
  KEYOPT(1-12)=    0    0    2    0    0    0    0    2    0    0    0    0

 ELEMENT TYPE    6 IS SHELL181. IT IS ASSOCIATED WITH ELASTOPLASTIC 
 MATERIALS ONLY. KEYOPT(8)=2 IS SUGGESTED AND KEYOPT(3)=2 IS SUGGESTED FOR
 HIGHER ACCURACY OF MEMBRANE STRESSES; OTHERWISE, KEYOPT(3)=0 IS SUGGESTED. 
 KEYOPT(8) HAS BEEN RESET BUT KEYOPT(3) CAN NOT BE RESET HERE. PLEASE RESET 
 IT MANUALLY IF NECESSARY.
  KEYOPT(1-12)=    0    0    2    0    0    0    0    2    0    0    0    0

 ELEMENT TYPE    7 IS SHELL181. IT IS ASSOCIATED WITH ELASTOPLASTIC 
 MATERIALS ONLY. KEYOPT(8)=2 IS SUGGESTED AND KEYOPT(3)=2 IS SUGGESTED FOR
 HIGHER ACCURACY OF MEMBRANE STRESSES; OTHERWISE, KEYOPT(3)=0 IS SUGGESTED. 
 KEYOPT(8) HAS BEEN RESET BUT KEYOPT(3) CAN NOT BE RESET HERE. PLEASE RESET 
 IT MANUALLY IF NECESSARY.
  KEYOPT(1-12)=    0    0    2    0    0    0    0    2    0    0    0    0

 ELEMENT TYPE    8 IS SHELL181. IT IS ASSOCIATED WITH ELASTOPLASTIC 
 MATERIALS ONLY. KEYOPT(8)=2 IS SUGGESTED AND KEYOPT(3)=2 IS SUGGESTED FOR
 HIGHER ACCURACY OF MEMBRANE STRESSES; OTHERWISE, KEYOPT(3)=0 IS SUGGESTED. 
 KEYOPT(8) HAS BEEN RESET BUT KEYOPT(3) CAN NOT BE RESET HERE. PLEASE RESET 
 IT MANUALLY IF NECESSARY.
  KEYOPT(1-12)=    0    0    2    0    0    0    0    2    0    0    0    0

 ELEMENT TYPE    9 IS SHELL181. IT IS ASSOCIATED WITH ELASTOPLASTIC 
 MATERIALS ONLY. KEYOPT(8)=2 IS SUGGESTED AND KEYOPT(3)=2 IS SUGGESTED FOR
 HIGHER ACCURACY OF MEMBRANE STRESSES; OTHERWISE, KEYOPT(3)=0 IS SUGGESTED. 
 KEYOPT(8) HAS BEEN RESET BUT KEYOPT(3) CAN NOT BE RESET HERE. PLEASE RESET 
 IT MANUALLY IF NECESSARY.
  KEYOPT(1-12)=    0    0    2    0    0    0    0    2    0    0    0    0



 *** ANSYS - ENGINEERING ANALYSIS SYSTEM  RELEASE 2019 R1          19.3     ***
 DISTRIBUTED ANSYS Academic Teaching Introductory              

 01055371  VERSION=WINDOWS x64   11:46:38  APR 17, 2019 CP=      1.844

 windTurbineCFD--Static Structural (B5)                                        



 *** WARNING ***                         CP =       1.875   TIME= 11:46:38
 Material number 12 (used by element 5464) should normally have at least 
 one MP or one TB type command associated with it.  Output of energy by  
 material may not be available.                                          
 The used degrees of freedom set is  UX   UY   UZ   ROTX ROTY ROTZ
 Please verify constraints (including rotational degrees of freedom)
  on the pilot node by yourself.
 ****************************************
  
  
  

  
  
     D I S T R I B U T E D   D O M A I N   D E C O M P O S E R
  
  ...Number of elements: 10340
  ...Number of nodes:    5305
  ...Decompose to 2 CPU domains
  ...Element load balance ratio =     1.061


 SOLUTION MONITORING INFO IS WRITTEN TO FILE= file.mntr                                                                                                                                                                                                                                                           
 MAXIMUM NUMBER OF EQUILIBRIUM ITERATIONS HAS BEEN MODIFIED              
  TO BE, NEQIT = 26, BY SOLUTION CONTROL LOGIC.                          

 *** NOTE ***                            CP =       2.531   TIME= 11:46:38
 Predictor is ON by default for structural elements with rotational      
 degrees of freedom.  Use the PRED,OFF command to turn the predictor     
 OFF if it adversely affects the convergence.                            



                         ***********  PRECISE MASS SUMMARY  ***********

   TOTAL RIGID BODY MASS MATRIX ABOUT ORIGIN
               Translational mass               |   Coupled translational/rotational mass
         22542.        0.0000        0.0000     |     0.0000        3648.0        4697.7    
         0.0000        22542.        0.0000     |    -3648.0        0.0000      -0.32074E+06
         0.0000        0.0000        22542.     |    -4697.7       0.32074E+06    0.0000    
     ------------------------------------------ | ------------------------------------------
                                                |         Rotational mass (inertia)
                                                |     19687.       -63259.        86099.    
                                                |    -63259.       0.65963E+07   -2772.4    
                                                |     86099.       -2772.4       0.66045E+07

   TOTAL MASS =  22542.    
     The mass principal axes coincide with the global Cartesian axes

   CENTER OF MASS (X,Y,Z)=   -14.229      -0.20840       0.16183    

   TOTAL INERTIA ABOUT CENTER OF MASS
         18118.        3583.7        34192.    
         3583.7       0.20318E+07   -3532.7    
         34192.       -3532.7       0.20397E+07

   PRINCIPAL INERTIAS =    17533.       0.20306E+07   0.20415E+07
   ORIENTATION VECTORS OF THE INERTIA PRINCIPAL AXES IN GLOBAL CARTESIAN
     ( 1.000,-0.002,-0.017) ( 0.007, 0.941, 0.337) ( 0.015,-0.337, 0.941) 


  *** MASS SUMMARY BY ELEMENT TYPE ***

  TYPE      MASS
     1   99.7679    
     2   189.497    
     3   430.109    
     4   692.929    
     5   8905.34    
     6   8981.23    
     7   1345.60    
     8   1896.60    
     9  0.626395    

 Range of element maximum matrix coefficients in global coordinates
 Maximum = 1.304938792E+10 at element 369.                               
 Minimum = 99758599.6 at element 2489.                                   

   *** ELEMENT MATRIX FORMULATION TIMES
     TYPE    NUMBER   ENAME      TOTAL CP  AVE CP

        1        44  SHELL181      0.047   0.001065
        2        82  SHELL181      0.016   0.000191
        3       106  SHELL181      0.062   0.000590
        4       136  SHELL181      0.000   0.000000
        5      2310  SHELL181      0.656   0.000284
        6      2310  SHELL181      0.797   0.000345
        7       239  SHELL181      0.016   0.000065
        8       220  SHELL181      0.062   0.000284
        9        15  SHELL181      0.000   0.000000
       12      4855  SURF154       0.641   0.000132
       13        22  CONTA175      0.000   0.000000
       14         1  TARGE170      0.000   0.000000
 Time at end of element matrix formulation CP = 3.828125.                

 ALL CURRENT ANSYS DATA WRITTEN TO FILE NAME= file.rdb
  FOR POSSIBLE RESUME FROM THIS POINT
     FORCE CONVERGENCE VALUE  =  0.2542E+05  CRITERION=   129.7    
     MOMENT CONVERGENCE VALUE =  0.3289E-06  CRITERION=  0.5102E-04

 DISTRIBUTED SPARSE MATRIX DIRECT SOLVER.
  Number of equations =       31686,    Maximum wavefront =     60

  Local memory allocated for solver              =     48.322 MB
  Local memory required for in-core solution     =     39.198 MB
  Local memory required for out-of-core solution =     21.486 MB

  Total memory allocated for solver              =     94.671 MB
  Total memory required for in-core solution     =     76.426 MB
  Total memory required for out-of-core solution =     39.294 MB

 *** NOTE ***                            CP =       4.094   TIME= 11:46:40
 The Distributed Sparse Matrix Solver is currently running in the        
 in-core memory mode.  This memory mode uses the most amount of memory   
 in order to avoid using the hard drive as much as possible, which most  
 often results in the fastest solution time.  This mode is recommended   
 if enough physical memory is present to accommodate all of the solver   
 data.                                                                   
 curEqn=  15918  totEqn=  15918 Job CP sec=      4.375
      Factor Done= 100% Factor Wall sec=      0.168 rate=    3315.8 Mflops
 Distributed sparse solver maximum pivot= 2.678279089E+10 at node 938    
 UX.                                                                     
 Distributed sparse solver minimum pivot= 59.751843 at node 5303 ROTX.   
 Distributed sparse solver minimum pivot in absolute value= 59.751843 at 
 node 5303 ROTX.                                                         
     DISP CONVERGENCE VALUE   =  0.4215      CRITERION=  0.2150E-01
    EQUIL ITER   1 COMPLETED.  NEW TRIANG MATRIX.  MAX DOF INC= -0.4215    
     DISP CONVERGENCE VALUE   =  0.2943      CRITERION=  0.2194E-01
     LINE SEARCH PARAMETER =  0.6983     SCALED MAX DOF INC = -0.2943    
     FORCE CONVERGENCE VALUE  =  0.1611E+06  CRITERION=   5756.    
     MOMENT CONVERGENCE VALUE =   1435.      CRITERION=   8679.     <<< CONVERGED
    EQUIL ITER   2 COMPLETED.  NEW TRIANG MATRIX.  MAX DOF INC= -0.5599E-01
     DISP CONVERGENCE VALUE   =  0.5599E-01  CRITERION=  0.2239E-01
     LINE SEARCH PARAMETER =   1.000     SCALED MAX DOF INC = -0.5599E-01
     FORCE CONVERGENCE VALUE  =   6818.      CRITERION=   8409.     <<< CONVERGED
     MOMENT CONVERGENCE VALUE =   85.80      CRITERION=  0.1199E+05 <<< CONVERGED
    EQUIL ITER   3 COMPLETED.  NEW TRIANG MATRIX.  MAX DOF INC= -0.3207E-01
     DISP CONVERGENCE VALUE   =  0.3207E-01  CRITERION=  0.2285E-01
     LINE SEARCH PARAMETER =   1.000     SCALED MAX DOF INC = -0.3207E-01
     FORCE CONVERGENCE VALUE  =   3461.      CRITERION=   8580.     <<< CONVERGED
     MOMENT CONVERGENCE VALUE =   19.87      CRITERION=  0.1239E+05 <<< CONVERGED
    EQUIL ITER   4 COMPLETED.  NEW TRIANG MATRIX.  MAX DOF INC= -0.6902E-03
     DISP CONVERGENCE VALUE   =  0.6902E-03  CRITERION=  0.2331E-01 <<< CONVERGED
     LINE SEARCH PARAMETER =   1.000     SCALED MAX DOF INC = -0.6902E-03
     FORCE CONVERGENCE VALUE  =   21.31      CRITERION=   8755.     <<< CONVERGED
     MOMENT CONVERGENCE VALUE =  0.5008      CRITERION=  0.1265E+05 <<< CONVERGED
    >>> SOLUTION CONVERGED AFTER EQUILIBRIUM ITERATION   4

   *** ELEMENT RESULT CALCULATION TIMES
     TYPE    NUMBER   ENAME      TOTAL CP  AVE CP

        1        44  SHELL181      0.000   0.000000
        2        82  SHELL181      0.031   0.000381
        3       106  SHELL181      0.031   0.000295
        4       136  SHELL181      0.062   0.000460
        5      2310  SHELL181      0.766   0.000331
        6      2310  SHELL181      0.891   0.000386
        7       239  SHELL181      0.109   0.000458
        8       220  SHELL181      0.078   0.000355
        9        15  SHELL181      0.000   0.000000
       12      4855  SURF154       0.750   0.000154
       13        22  CONTA175      0.000   0.000000

   *** NODAL LOAD CALCULATION TIMES
     TYPE    NUMBER   ENAME      TOTAL CP  AVE CP

        1        44  SHELL181      0.000   0.000000
        2        82  SHELL181      0.000   0.000000
        3       106  SHELL181      0.000   0.000000
        4       136  SHELL181      0.000   0.000000
        5      2310  SHELL181      0.047   0.000020
        6      2310  SHELL181      0.031   0.000014
        7       239  SHELL181      0.000   0.000000
        8       220  SHELL181      0.000   0.000000
        9        15  SHELL181      0.000   0.000000
       12      4855  SURF154       0.016   0.000003
       13        22  CONTA175      0.000   0.000000
 *** LOAD STEP     1   SUBSTEP     1  COMPLETED.    CUM ITER =      4
 *** TIME =   1.00000         TIME INC =   1.00000    


 *** ANSYS BINARY FILE STATISTICS
  BUFFER SIZE USED= 16384
       44.750 MB WRITTEN ON ELEMENT SAVED DATA FILE: file0.esav
        6.562 MB WRITTEN ON ASSEMBLED MATRIX FILE: file0.full
        6.000 MB WRITTEN ON RESULTS FILE: file0.rst
 *************** Write FE CONNECTORS *********
 ****************************************************
 *************** FINISHED SOLVE FOR LS 1 *************

 PRINTOUT RESUMED BY /GOP

 FINISH SOLUTION PROCESSING


 ***** ROUTINE COMPLETED *****  CP =        25.500



 *** ANSYS - ENGINEERING ANALYSIS SYSTEM  RELEASE 2019 R1          19.3     ***
 DISTRIBUTED ANSYS Academic Teaching Introductory              

 01055371  VERSION=WINDOWS x64   11:47:07  APR 17, 2019 CP=     25.500

 windTurbineCFD--Static Structural (B5)                                        



          ***** ANSYS RESULTS INTERPRETATION (POST1) *****

 *** NOTE ***                            CP =      25.500   TIME= 11:47:07
 Reading results into the database (SET command) will update the current 
 displacement and force boundary conditions in the database with the     
 values from the results file for that load set.  Note that any          
 subsequent solutions will use these values unless action is taken to    
 either SAVE the current values or not overwrite them (/EXIT,NOSAVE).    

 Set Encoding of XML File to:ISO-8859-1

 Set Output of XML File to:
     PARM,     ,     ,     ,     ,     ,     ,     ,     ,     ,     ,     ,
         ,     ,     ,     ,     ,     ,     ,

 DATABASE WRITTEN ON FILE  parm.xml                                                                                                                                                                                                                                                            

 EXIT THE ANSYS POST1 DATABASE PROCESSOR


 ***** ROUTINE COMPLETED *****  CP =        25.531



 PRINTOUT RESUMED BY /GOP

 *GET  _WALLDONE  FROM  ACTI  ITEM=TIME WALL  VALUE=  11.7852778    

 PARAMETER _PREPTIME =     0.000000000    

 PARAMETER _SOLVTIME =     30.00000000    

 PARAMETER _POSTTIME =     0.000000000    

 PARAMETER _TOTALTIM =     30.00000000    

 *GET  _DLBRATIO  FROM  ACTI  ITEM=SOLU DLBR  VALUE=  1.06073501    
 --- Number of total nodes = 5304
 --- Number of total elements = 10340
 --- Element load balance ratio = 1.06073501

 EXIT ANSYS WITHOUT SAVING DATABASE


 NUMBER OF WARNING MESSAGES ENCOUNTERED=          2
 NUMBER OF ERROR   MESSAGES ENCOUNTERED=          0

+--------- D I S T R I B U T E D   A N S Y S   S T A T I S T I C S ------------+

Release: 2019 R1            Build: 19.3       Update: UP20181204   Platform: WINDOWS x64 
Date Run: 04/17/2019   Time: 11:47     Process ID: 5536
Operating System: Windows 10  (Build: 17134)

Processor Model: Intel(R) Core(TM) M-5Y10c CPU @ 0.80GHz

Compiler: Intel(R) FORTRAN Compiler Version 17.0.4  (Build: 20170411)
          Intel(R) C/C++ Compiler Version 17.0.4  (Build: 20170411)
          Intel(R) Math Kernel Library Version 2017.0.3 Product Build 20170413

Number of machines requested            :    1
Total number of cores available         :    4
Number of physical cores available      :    2
Number of processes requested           :    2
Number of threads per process requested :    1
Total number of cores requested         :    2 (Distributed Memory Parallel)               
MPI Type: INTELMPI
MPI Version: Intel(R) MPI Library 2017 Update 3 for Windows* OS


GPU Acceleration: Not Requested

Job Name: file0
Input File: dummy.dat

  Core                Machine Name   Working Directory
 -----------------------------------------------------
     0             DESKTOP-348TNC0   D:\SPSProjects\ANSYS_projects\_ProjectScratch\Scr434
     1             DESKTOP-348TNC0   D:\SPSProjects\ANSYS_projects\_ProjectScratch\Scr434
 
Latency time from master to core     1 =    1.994 microseconds
 
Communication speed from master to core     1 =   684.98 MB/sec

Total CPU time for main thread                    :       25.4 seconds
Total CPU time summed for all threads             :       25.9 seconds

Elapsed time spent pre-processing model (/PREP7)  :        0.2 seconds
Elapsed time spent solution - preprocessing       :        0.5 seconds
Elapsed time spent computing solution             :       28.2 seconds
Elapsed time spent solution - postprocessing      :        0.1 seconds
Elapsed time spent post-processing model (/POST1) :        0.0 seconds
 
Equation solver used                              :            Sparse (symmetric)
Equation solver computational rate                :        3.5 Gflops
Equation solver effective I/O rate                :        4.4 GB/sec

Maximum total memory used                         :      305.0 MB
Maximum total memory allocated                    :     3136.0 MB
Total physical memory available                   :          8 GB

Total amount of I/O written to disk               :        0.6 GB
Total amount of I/O read from disk                :        0.9 GB

+------ E N D   D I S T R I B U T E D   A N S Y S   S T A T I S T I C S -------+


 *---------------------------------------------------------------------------*
 |                                                                           |
 |                       DISTRIBUTED ANSYS RUN COMPLETED                     |
 |                                                                           |
 |---------------------------------------------------------------------------|
 |                                                                           |
 | Ansys 2019 R1               Build 19.3         UP20181204     WINDOWS x64 |
 |                                                                           |
 |---------------------------------------------------------------------------|
 |                                                                           |
 | Database Requested(-db)  1024 MB    Scratch Memory Requested      1024 MB |
 | Maximum Database Used       9 MB    Maximum Scratch Memory Used    149 MB |
 |                                                                           |
 |---------------------------------------------------------------------------|
 |                                                                           |
 |        CP Time      (sec) =         25.875       Time  =  11:47:07        |
 |        Elapsed Time (sec) =         33.000       Date  =  04/17/2019      |
 |                                                                           |
 *---------------------------------------------------------------------------*
